366

Pd 9.150253 0.208865 0.456321
Pd 0.445058 9.395214 0.272015
Pd -8.769956 0.063243 -0.164523
Pd 0.068252 -8.606511 0.734126
Pd 0.190670 0.425905 9.461314
Pd 0.521297 0.588360 -8.587082
C 9.944948 2.818572 1.019666
N 9.167356 1.892217 0.413047
C 8.032816 2.304859 -0.180176
C 7.645478 3.631315 -0.186570
C 8.434235 4.579269 0.430153
C 8.022509 5.980899 0.422015
C 8.951462 6.999590 0.420719
C 8.578309 8.342127 0.412624
C 7.242747 8.689531 0.405536
C 6.289411 7.691561 0.406636
C 4.889718 8.061262 0.398433
C 3.952115 7.262631 -0.210405
C 2.637583 7.670142 -0.183625
N 2.247177 8.812396 0.413047
C 3.150362 9.605556 1.013337
C 4.456087 9.223276 0.999681
C 6.688319 6.353738 0.414860
C 9.596991 4.153131 1.037631
H 10.854868 2.442144 1.488085
H 7.365106 1.591061 -0.687819
H 6.732844 3.974205 -0.661102
H 10.007173 6.740290 0.426226
H 9.325208 9.120229 0.411811
H 6.926174 9.733780 0.399134
H 4.211936 6.325498 -0.709448
H 1.879550 7.044140 -0.664128
H 2.816050 10.533594 1.495013
H 5.161556 9.895785 1.498837
H 5.952153 5.579419 0.415684
H 10.250951 4.840668 1.532518
C 9.846736 -2.818527 -0.080517
N 9.069144 -1.892172 0.526102
C 7.934603 -2.304815 1.119325
C 7.547266 -3.631271 1.125720
C 8.336022 -4.579224 0.508997
C 7.924296 -5.980855 0.517134
C 8.853250 -6.999546 0.518431
C 8.480096 -8.342082 0.526526
C 7.144534 -8.689487 0.533613
C 6.191199 -7.691516 0.532514
C 4.791505 -8.061217 0.540716
C 3.853903 -7.262587 1.149554
C 2.539371 -7.670097 1.122775
N 2.148965 -8.812352 0.526102
C 3.052150 -9.605512 -0.074188
C 4.357874 -9.223232 -0.060532
C 6.590107 -6.353694 0.524290
C 9.498779 -4.153087 -0.098481
H 10.756655 -2.442100 -0.548935
H 7.266893 -1.591017 1.626969
H 6.634631 -3.974161 1.600251
H 9.908960 -6.740246 0.512924
H 9.226995 -9.120185 0.527338
H 6.827961 -9.733735 0.540015
H 4.113724 -6.325453 1.648598
H 1.781337 -7.044095 1.603277
H 2.717838 -10.533549 -0.555864
H 5.063344 -9.895741 -0.559688
H 5.853940 -5.579375 0.523466
H 10.152738 -4.840624 -0.593368
C 9.784745 -0.528972 3.567079
N 9.007153 0.077646 2.640725
C 7.872612 0.670869 3.053367
C 7.485275 0.677264 4.379823
C 8.274031 0.060541 5.327777
C 7.862305 0.068679 6.729407
C 8.791259 0.069975 7.748098
C 8.418105 0.078070 9.090635
C 7.082543 0.085157 9.438039
C 6.129208 0.084058 8.440068
C 4.729514 0.092261 8.809770
C 3.791912 0.701099 8.011139
C 2.477380 0.674319 8.418649
N 2.086974 0.077646 9.560904
C 2.990159 -0.522643 10.354064
C 4.295883 -0.508988 9.971784
C 6.528116 0.075834 7.102246
C 9.436788 -0.546937 4.901639
H 10.694664 -0.997391 3.190652
H 7.204902 1.178513 2.339569
H 6.572640 1.151795 4.722713
H 9.846969 0.064468 7.488798
H 9.165004 0.078882 9.868737
H 6.765970 0.091560 10.482288
H 4.051733 1.200142 7.074006
H 1.719346 1.154821 7.792647
H 2.655847 -1.004320 11.282101
H 5.001353 -1.008144 10.644293
H 5.791949 0.075010 6.327927
H 10.090747 -1.041824 5.589176
C 10.295745 0.900808 -2.191126
N 9.518153 0.294189 -1.264771
C 8.383612 -0.299034 -1.677413
C 7.996275 -0.305429 -3.003869
C 8.785031 0.311294 -3.951823
C 8.373305 0.303157 -5.353453
C 9.302259 0.301860 -6.372145
C 8.929105 0.293765 -7.714681
C 7.593543 0.286678 -8.062085
C 6.640208 0.287777 -7.064115
C 5.240514 0.279575 -7.433816
C 4.302912 -0.329263 -6.635186
C 2.988380 -0.302484 -7.042696
N 2.597974 0.294189 -8.184950
C 3.501159 0.894479 -8.978111
C 4.806883 0.880823 -8.595830
C 7.039116 0.296002 -5.726292
C 9.947788 0.918773 -3.525686
H 11.205664 1.369226 -1.814698
H 7.715902 -0.806677 -0.963615
H 7.083640 -0.779960 -3.346760
H 10.357969 0.307367 -6.112844
H 9.676004 0.292953 -8.492783
H 7.276970 0.280276 -9.106334
H 4.562733 -0.828307 -5.698052
H 2.230346 -0.782986 -6.416694
H 3.166847 1.376155 -9.906148
H 5.512353 1.379979 -9.268339
H 6.302949 0.296825 -4.951973
H 10.601747 1.413659 -4.213223
C -2.455150 9.800010 0.823566
N -1.528795 9.022418 0.216947
C -1.941437 7.887877 -0.376276
C -3.267893 7.500540 -0.382671
C -4.215847 8.289296 0.234052
C -5.617477 7.877570 0.225915
C -6.636168 8.806524 0.224618
C -7.978705 8.433370 0.216523
C -8.326109 7.097808 0.209436
C -7.328139 6.144473 0.210536
C -7.697840 4.744779 0.202333
C -6.899209 3.807177 -0.406505
C -7.306720 2.492645 -0.379726
N -8.448974 2.102239 0.216947
C -9.242134 3.005424 0.817237
C -8.859854 4.311148 0.803581
C -5.990316 6.543381 0.218760
C -3.789709 9.452053 0.841531
H -2.078722 10.709929 1.291984
H -1.227639 7.220167 -0.883919
H -3.610783 6.587905 -0.857202
H -6.376868 9.862234 0.230126
H -8.756807 9.180269 0.215711
H -9.370358 6.781235 0.203034
H -5.962076 4.066998 -0.905549
H -6.680717 1.734611 -0.860228
H -10.170172 2.671112 1.298913
H -9.532363 5.016618 1.302737
H -5.215997 5.807214 0.219583
H -4.477246 10.106012 1.336417
C -9.765178 -3.059581 0.826632
N -8.987586 -2.133226 0.220013
C -7.853045 -2.545869 -0.373210
C -7.465708 -3.872325 -0.379605
C -8.254465 -4.820279 0.237118
C -7.842738 -6.221909 0.228981
C -8.771692 -7.240600 0.227684
C -8.398538 -8.583137 0.219589
C -7.062976 -8.930541 0.212502
C -6.109641 -7.932570 0.213602
C -4.709948 -8.302272 0.205399
C -3.772345 -7.503641 -0.403439
C -2.457813 -7.911151 -0.376660
N -2.067407 -9.053406 0.220013
C -2.970592 -9.846566 0.820303
C -4.276316 -9.464286 0.806647
C -6.508549 -6.594748 0.221826
C -9.417221 -4.394141 0.844597
H -10.675098 -2.683154 1.295050
H -7.185336 -1.832071 -0.880853
H -6.553074 -4.215215 -0.854136
H -9.827402 -6.981300 0.233192
H -9.145438 -9.361239 0.218777
H -6.746404 -9.974790 0.206100
H -4.032166 -6.566507 -0.902483
H -1.699780 -7.285149 -0.857162
H -2.636280 -10.774603 1.301979
H -4.981786 -10.136795 1.305803
H -5.772382 -5.820429 0.222649
H -10.071180 -5.081678 1.339483
C -9.182740 0.556200 2.700023
N -8.405148 -0.050419 1.773668
C -7.270608 -0.643642 2.186311
C -6.883270 -0.650037 3.512766
C -7.672027 -0.033314 4.460720
C -7.260300 -0.041451 5.862350
C -8.189254 -0.042748 6.881042
C -7.816100 -0.050843 8.223578
C -6.480539 -0.057930 8.570983
C -5.527203 -0.056831 7.573012
C -4.127510 -0.065033 7.942713
C -3.189907 -0.673871 7.144083
C -1.875375 -0.647092 7.551593
N -1.484969 -0.050419 8.693848
C -2.388154 0.549871 9.487008
C -3.693879 0.536215 9.104728
C -5.926111 -0.048607 6.235189
C -8.834783 0.574164 4.034583
H -10.092660 1.024618 2.323596
H -6.602898 -1.151285 1.472512
H -5.970636 -1.124568 3.855657
H -9.244965 -0.037241 6.621741
H -8.563000 -0.051655 9.001681
H -6.163966 -0.064332 9.615231
H -3.449728 -1.172915 6.206949
H -1.117342 -1.127594 6.925591
H -2.053842 1.031547 10.415045
H -4.399348 1.035371 9.777236
H -5.189945 -0.047783 5.460870
H -9.488743 1.069051 4.722120
C -9.156305 -0.453405 -3.343290
N -8.378713 0.153214 -2.416935
C -7.244172 0.746437 -2.829577
C -6.856835 0.752831 -4.156033
C -7.645592 0.136109 -5.103987
C -7.233865 0.144246 -6.505617
C -8.162819 0.145542 -7.524308
C -7.789665 0.153637 -8.866845
C -6.454103 0.160725 -9.214249
C -5.500768 0.159625 -8.216279
C -4.101075 0.167828 -8.585980
C -3.163472 0.776666 -7.787349
C -1.848940 0.749886 -8.194860
N -1.458534 0.153214 -9.337114
C -2.361719 -0.447076 -10.130274
C -3.667443 -0.433420 -9.747994
C -5.899676 0.151401 -6.878456
C -8.808348 -0.471370 -4.677849
H -10.066225 -0.921824 -2.966862
H -6.576463 1.254080 -2.115779
H -5.944201 1.227363 -4.498923
H -9.218529 0.140035 -7.265008
H -8.536565 0.154450 -9.644947
H -6.137531 0.167127 -10.258498
H -3.423293 1.275710 -6.850216
H -1.090907 1.230389 -7.568858
H -2.027407 -0.928752 -11.058312
H -4.372913 -0.932576 -10.420503
H -5.163509 0.150577 -6.104137
H -9.462307 -0.966257 -5.365386
C 0.656882 10.034853 3.110740
N 0.050263 9.257262 2.184385
C -0.542960 8.122721 2.597027
C -0.549355 7.735383 3.923483
C 0.067368 8.524140 4.871437
C 0.059231 8.112414 6.273067
C 0.057934 9.041367 7.291758
C 0.049839 8.668214 8.634295
C 0.042752 7.332652 8.981699
C 0.043851 6.379317 7.983729
C 0.035649 4.979623 8.353430
C -0.573189 4.042020 7.554799
C -0.546410 2.727489 7.962310
N 0.050263 2.337082 9.104564
C 0.650553 3.240267 9.897724
C 0.636897 4.545992 9.515444
C 0.052075 6.778225 6.645906
C 0.674846 9.686896 4.445300
H 1.125300 10.944773 2.734312
H -1.050604 7.455011 1.883229
H -1.023886 6.822749 4.266373
H 0.063441 10.097078 7.032458
H 0.049027 9.415113 9.412397
H 0.036349 7.016079 10.025948
H -1.072233 4.301841 6.617666
H -1.026912 1.969455 7.336308
H 1.132229 2.905956 10.825762
H 1.136053 5.251461 10.187953
H 0.052899 6.042058 5.871587
H 1.169733 10.340856 5.132836
C -0.441350 10.423555 -2.733220
N 0.165269 9.645964 -1.806865
C 0.758492 8.511423 -2.219507
C 0.764886 8.124085 -3.545963
C 0.148163 8.912842 -4.493917
C 0.156301 8.501116 -5.895547
C 0.157597 9.430069 -6.914238
C 0.165692 9.056916 -8.256775
C 0.172780 7.721354 -8.604179
C 0.171680 6.768019 -7.606209
C 0.179883 5.368325 -7.975910
C 0.788721 4.430722 -7.177280
C 0.761941 3.116191 -7.584790
N 0.165269 2.725784 -8.727044
C -0.435021 3.628969 -9.520205
C -0.421365 4.934694 -9.137924
C 0.163456 7.166927 -6.268386
C -0.459315 10.075598 -4.067780
H -0.909769 11.333475 -2.356792
H 1.266135 7.843713 -1.505709
H 1.239417 7.211451 -3.888854
H 0.152090 10.485780 -6.654938
H 0.166505 9.803815 -9.034877
H 0.179182 7.404781 -9.648428
H 1.287764 4.690543 -6.240146
H 1.242443 2.358157 -6.958788
H -0.916698 3.294658 -10.448242
H -0.920521 5.640163 -9.810433
H 0.162632 6.430760 -5.494067
H -0.954202 10.729558 -4.755317
C -0.343705 -9.259438 3.835492
N 0.262914 -8.481846 2.909138
C 0.856137 -7.347305 3.321780
C 0.862531 -6.959968 4.648236
C 0.245808 -7.748724 5.596190
C 0.253946 -7.336998 6.997820
C 0.255242 -8.265952 8.016511
C 0.263337 -7.892798 9.359048
C 0.270425 -6.557236 9.706452
C 0.269325 -5.603901 8.708481
C 0.277528 -4.204207 9.078183
C 0.886366 -3.266605 8.279552
C 0.859586 -1.952073 8.687062
N 0.262914 -1.561667 9.829317
C -0.337376 -2.464852 10.622477
C -0.323720 -3.770576 10.240197
C 0.261101 -6.002809 7.370659
C -0.361670 -8.911481 5.170052
H -0.812124 -10.169357 3.459065
H 1.363780 -6.679595 2.607982
H 1.337063 -6.047333 4.991126
H 0.249735 -9.321662 7.757211
H 0.264150 -8.639697 10.137150
H 0.276827 -6.240663 10.750701
H 1.385410 -3.526426 7.342419
H 1.340089 -1.194039 8.061060
H -0.819052 -2.130540 11.550514
H -0.822876 -4.476046 10.912706
H 0.260277 -5.266642 6.596340
H -0.856557 -9.565440 5.857589
C 0.618595 -8.667904 -2.229134
N 0.011976 -7.890312 -1.302779
C -0.581247 -6.755771 -1.715422
C -0.587641 -6.368434 -3.041877
C 0.029082 -7.157191 -3.989831
C 0.020944 -6.745464 -5.391461
C 0.019648 -7.674418 -6.410153
C 0.011553 -7.301264 -7.752689
C 0.004465 -5.965702 -8.100094
C 0.005565 -5.012367 -7.102123
C -0.002638 -3.612673 -7.471824
C -0.611476 -2.675071 -6.673194
C -0.584696 -1.360539 -7.080704
N 0.011976 -0.970133 -8.222959
C 0.612266 -1.873318 -9.016119
C 0.598610 -3.179042 -8.633839
C 0.013789 -5.411275 -5.764300
C 0.636560 -8.319947 -3.563694
H 1.087014 -9.577823 -1.852707
H -1.088890 -6.088061 -1.001623
H -1.062173 -5.455800 -3.384768
H 0.025155 -8.730128 -6.150852
H 0.010740 -8.048164 -8.530792
H -0.001937 -5.649130 -9.144342
H -1.110520 -2.934892 -5.736060
H -1.065199 -0.602506 -6.454702
H 1.093942 -1.539006 -9.944156
H 1.097766 -3.884512 -9.306347
H 0.014613 -4.675108 -4.989981
H 1.131447 -8.973906 -4.251231
